LTspice 24.0.12 for Windows
Circuit: * C:\Users\Linas\Desktop\STM32_stuff\Projects_older_workspace\Battery_analyzer\PWM_RC_filter.asc
Start Time: Sat Jul 26 14:12:26 2025
solver = Normal
Maximum thread count: 12
tnom = 27
temp = 27
method = modified trap
.OP point found by inspection.
Total elapsed time: 3.297 seconds.

